@<TRIPOS>MOLECULE
obj01
 62 66 0 0 0
SMALL
GASTEIGER

@<TRIPOS>ATOM
      1 C          27.6819  -12.5242   14.4930 C.3     1  SUS1        0.0748
      2 O          26.8462  -13.0320   15.5096 O.3     1  SUS1       -0.3877
      3 C          27.1238  -12.9323   13.1359 C.3     1  SUS1       -0.0083
      4 O          27.4687  -13.5540    7.6442 O.3     1  SUS1       -0.3918
      5 C          27.4856  -12.0313   11.9435 C.3     1  SUS1       -0.0299
      6 O          27.2978   -9.7528   19.2681 O.3     1  SUS1       -0.3355
      7 C          27.6298  -11.0230   14.7592 C.3     1  SUS1        0.0004
      8 O          26.9580  -10.7271   21.2491 O.3     1  SUS1       -0.1903
      9 C          26.5791  -12.3933   10.7348 C.3     1  SUS1       -0.0259
     10 C          26.7543  -13.9005   10.4002 C.3     1  SUS1       -0.0330
     11 C          27.4269  -10.5302   12.2771 C.3     1  SUS1       -0.0488
     12 C          28.1971  -10.2446   13.5454 C.3     1  SUS1       -0.0444
     13 C          28.6494  -10.9287   15.9015 C.3     1  SUS1       -0.0239
     14 C          27.2808  -14.4342   12.8251 C.3     1  SUS1       -0.0470
     15 C          29.1266  -12.9973   14.7124 C.3     1  SUS1       -0.0229
     16 C          26.4578  -14.8222   11.5944 C.3     1  SUS1       -0.0493
     17 C          29.7724  -11.9298   15.5722 C.3     1  SUS1       -0.0464
     18 C          26.9896  -11.5369    9.5112 C.3     1  SUS1       -0.0448
     19 C          28.1466  -14.1832    9.8114 C.3     1  SUS1       -0.0235
     20 C          26.2044  -10.4791   15.0700 C.3     1  SUS1       -0.0567
     21 C          25.0752  -12.1101   11.0145 C.3     1  SUS1       -0.0590
     22 C          28.3942  -11.7907    8.9885 C.3     1  SUS1       -0.0263
     23 C          28.4564  -13.2648    8.6198 C.3     1  SUS1        0.0555
     24 C          28.1588  -10.9617   17.3644 C.3     1  SUS1        0.0151
     25 C          28.3009  -12.1037   18.2380 C.3     1  SUS1       -0.0197
     26 C          27.6950   -9.8501   17.9639 C.3     1  SUS1        0.0957
     27 C          27.9549  -12.0481   19.5358 C.3     1  SUS1        0.0334
     28 C          27.3727  -10.8115   20.1038 C.3     1  SUS1        0.2641
     29 H          26.0885  -12.7530   13.2752 H       1  SUS1        0.0331
     30 H          28.5270  -12.2438   11.7135 H       1  SUS1        0.0310
     31 H          26.0251  -14.1631    9.6322 H       1  SUS1        0.0307
     32 H          27.8851   -9.9426   11.4835 H       1  SUS1        0.0268
     33 H          26.4030  -10.1725   12.3717 H       1  SUS1        0.0268
     34 H          29.2439  -10.4915   13.3645 H       1  SUS1        0.0272
     35 H          28.1834   -9.1726   13.7309 H       1  SUS1        0.0272
     36 H          29.0657   -9.9613   15.7363 H       1  SUS1        0.0313
     37 H          26.9400  -15.0310   13.6722 H       1  SUS1        0.0269
     38 H          28.3279  -14.6919   12.6742 H       1  SUS1        0.0269
     39 H          29.1661  -13.9811   15.1784 H       1  SUS1        0.0293
     40 H          29.6701  -13.0644   13.7702 H       1  SUS1        0.0293
     41 H          25.3963  -14.7694   11.8384 H       1  SUS1        0.0268
     42 H          26.6467  -15.8632   11.3338 H       1  SUS1        0.0268
     43 H          30.2591  -12.3811   16.4239 H       1  SUS1        0.0269
     44 H          30.5638  -11.4325   15.0098 H       1  SUS1        0.0269
     45 H          26.7966  -10.5026    9.7091 H       1  SUS1        0.0271
     46 H          26.3773  -11.7133    8.6491 H       1  SUS1        0.0271
     47 H          28.1652  -15.2258    9.4980 H       1  SUS1        0.0293
     48 H          28.9326  -14.0835   10.5565 H       1  SUS1        0.0293
     49 H          25.8424  -10.7711   16.0539 H       1  SUS1        0.0236
     50 H          26.1803   -9.3958   15.0176 H       1  SUS1        0.0236
     51 H          25.4657  -10.8382   14.3529 H       1  SUS1        0.0236
     52 H          24.6563  -12.5078   11.9339 H       1  SUS1        0.0235
     53 H          24.8358  -11.0474   10.9811 H       1  SUS1        0.0235
     54 H          24.4846  -12.6051   10.2555 H       1  SUS1        0.0235
     55 H          28.5830  -11.1721    8.1101 H       1  SUS1        0.0290
     56 H          29.1591  -11.5310    9.7194 H       1  SUS1        0.0290
     57 H          29.4461  -13.4747    8.2167 H       1  SUS1        0.0593
     58 H          26.0196  -13.3096   15.1004 H       1  SUS1        0.2102
     59 H          28.6962  -13.0293   17.8516 H       1  SUS1        0.0315
     60 H          27.5838   -8.9070   17.4793 H       1  SUS1        0.0629
     61 H          27.7607  -13.2111    6.8007 H       1  SUS1        0.2098
     62 H          28.0693  -12.9102   20.1765 H       1  SUS1        0.0363
@<TRIPOS>BOND
     1     1     2    1
     2     1     3    1
     3     1     7    1
     4     1    15    1
     5     2    58    1
     6     3     5    1
     7     3    14    1
     8     3    29    1
     9     4    23    1
    10     4    61    1
    11     5     9    1
    12     5    11    1
    13     5    30    1
    14     6    26    1
    15     6    28    1
    16     7    12    1
    17     7    13    1
    18     7    20    1
    19     8    28    1
    20     9    10    1
    21     9    18    1
    22     9    21    1
    23    10    16    1
    24    10    19    1
    25    10    31    1
    26    11    12    1
    27    11    32    1
    28    11    33    1
    29    12    34    1
    30    12    35    1
    31    13    17    1
    32    13    24    1
    33    13    36    1
    34    14    16    1
    35    14    37    1
    36    14    38    1
    37    15    17    1
    38    15    39    1
    39    15    40    1
    40    16    41    1
    41    16    42    1
    42    17    43    1
    43    17    44    1
    44    18    22    1
    45    18    45    1
    46    18    46    1
    47    19    23    1
    48    19    47    1
    49    19    48    1
    50    20    49    1
    51    20    50    1
    52    20    51    1
    53    21    52    1
    54    21    53    1
    55    21    54    1
    56    22    23    1
    57    22    55    1
    58    22    56    1
    59    23    57    1
    60    24    25    1
    61    24    26    1
    62    25    27    1
    63    25    59    1
    64    26    60    1
    65    27    28    1
    66    27    62    1
