obj01
  PyMOL2.5          3D                             0

 62 66  0  0  0  0  0  0  0  0999 V2000
   27.6819  -12.5242   14.4930 C   0  0  0  0  0  0  0  0  0  0  0  0
   26.8462  -13.0320   15.5096 O   0  0  0  0  0  0  0  0  0  0  0  0
   27.1238  -12.9323   13.1359 C   0  0  0  0  0  0  0  0  0  0  0  0
   27.4687  -13.5540    7.6442 O   0  0  0  0  0  0  0  0  0  0  0  0
   27.4856  -12.0313   11.9435 C   0  0  0  0  0  0  0  0  0  0  0  0
   27.2978   -9.7528   19.2681 O   0  0  0  0  0  0  0  0  0  0  0  0
   27.6298  -11.0230   14.7592 C   0  0  0  0  0  0  0  0  0  0  0  0
   26.9580  -10.7271   21.2491 O   0  0  0  0  0  0  0  0  0  0  0  0
   26.5791  -12.3933   10.7348 C   0  0  0  0  0  0  0  0  0  0  0  0
   26.7543  -13.9005   10.4002 C   0  0  0  0  0  0  0  0  0  0  0  0
   27.4269  -10.5302   12.2771 C   0  0  0  0  0  0  0  0  0  0  0  0
   28.1971  -10.2446   13.5454 C   0  0  0  0  0  0  0  0  0  0  0  0
   28.6494  -10.9287   15.9015 C   0  0  0  0  0  0  0  0  0  0  0  0
   27.2808  -14.4342   12.8251 C   0  0  0  0  0  0  0  0  0  0  0  0
   29.1266  -12.9973   14.7124 C   0  0  0  0  0  0  0  0  0  0  0  0
   26.4578  -14.8222   11.5944 C   0  0  0  0  0  0  0  0  0  0  0  0
   29.7724  -11.9298   15.5722 C   0  0  0  0  0  0  0  0  0  0  0  0
   26.9896  -11.5369    9.5112 C   0  0  0  0  0  0  0  0  0  0  0  0
   28.1466  -14.1832    9.8114 C   0  0  0  0  0  0  0  0  0  0  0  0
   26.2044  -10.4791   15.0700 C   0  0  0  0  0  0  0  0  0  0  0  0
   25.0752  -12.1101   11.0145 C   0  0  0  0  0  0  0  0  0  0  0  0
   28.3942  -11.7907    8.9885 C   0  0  0  0  0  0  0  0  0  0  0  0
   28.4564  -13.2648    8.6198 C   0  0  0  0  0  0  0  0  0  0  0  0
   28.1588  -10.9617   17.3644 C   0  0  0  0  0  0  0  0  0  0  0  0
   28.3009  -12.1037   18.2380 C   0  0  0  0  0  0  0  0  0  0  0  0
   27.6950   -9.8501   17.9639 C   0  0  0  0  0  0  0  0  0  0  0  0
   27.9549  -12.0481   19.5358 C   0  0  0  0  0  0  0  0  0  0  0  0
   27.3727  -10.8115   20.1038 C   0  0  0  0  0  0  0  0  0  0  0  0
   26.0885  -12.7530   13.2752 H   0  0  0  0  0  0  0  0  0  0  0  0
   28.5270  -12.2438   11.7135 H   0  0  0  0  0  0  0  0  0  0  0  0
   26.0251  -14.1631    9.6322 H   0  0  0  0  0  0  0  0  0  0  0  0
   27.8851   -9.9426   11.4835 H   0  0  0  0  0  0  0  0  0  0  0  0
   26.4030  -10.1725   12.3717 H   0  0  0  0  0  0  0  0  0  0  0  0
   29.2439  -10.4915   13.3645 H   0  0  0  0  0  0  0  0  0  0  0  0
   28.1834   -9.1726   13.7309 H   0  0  0  0  0  0  0  0  0  0  0  0
   29.0657   -9.9613   15.7363 H   0  0  0  0  0  0  0  0  0  0  0  0
   26.9400  -15.0310   13.6722 H   0  0  0  0  0  0  0  0  0  0  0  0
   28.3279  -14.6919   12.6742 H   0  0  0  0  0  0  0  0  0  0  0  0
   29.1661  -13.9811   15.1784 H   0  0  0  0  0  0  0  0  0  0  0  0
   29.6701  -13.0644   13.7702 H   0  0  0  0  0  0  0  0  0  0  0  0
   25.3963  -14.7694   11.8384 H   0  0  0  0  0  0  0  0  0  0  0  0
   26.6467  -15.8632   11.3338 H   0  0  0  0  0  0  0  0  0  0  0  0
   30.2591  -12.3811   16.4239 H   0  0  0  0  0  0  0  0  0  0  0  0
   30.5638  -11.4325   15.0098 H   0  0  0  0  0  0  0  0  0  0  0  0
   26.7966  -10.5026    9.7091 H   0  0  0  0  0  0  0  0  0  0  0  0
   26.3773  -11.7133    8.6491 H   0  0  0  0  0  0  0  0  0  0  0  0
   28.1652  -15.2258    9.4980 H   0  0  0  0  0  0  0  0  0  0  0  0
   28.9326  -14.0835   10.5565 H   0  0  0  0  0  0  0  0  0  0  0  0
   25.8424  -10.7711   16.0539 H   0  0  0  0  0  0  0  0  0  0  0  0
   26.1803   -9.3958   15.0176 H   0  0  0  0  0  0  0  0  0  0  0  0
   25.4657  -10.8382   14.3529 H   0  0  0  0  0  0  0  0  0  0  0  0
   24.6563  -12.5078   11.9339 H   0  0  0  0  0  0  0  0  0  0  0  0
   24.8358  -11.0474   10.9811 H   0  0  0  0  0  0  0  0  0  0  0  0
   24.4846  -12.6051   10.2555 H   0  0  0  0  0  0  0  0  0  0  0  0
   28.5830  -11.1721    8.1101 H   0  0  0  0  0  0  0  0  0  0  0  0
   29.1591  -11.5310    9.7194 H   0  0  0  0  0  0  0  0  0  0  0  0
   29.4461  -13.4747    8.2167 H   0  0  0  0  0  0  0  0  0  0  0  0
   26.0196  -13.3096   15.1004 H   0  0  0  0  0  0  0  0  0  0  0  0
   28.6962  -13.0293   17.8516 H   0  0  0  0  0  0  0  0  0  0  0  0
   27.5838   -8.9070   17.4793 H   0  0  0  0  0  0  0  0  0  0  0  0
   27.7607  -13.2111    6.8007 H   0  0  0  0  0  0  0  0  0  0  0  0
   28.0693  -12.9102   20.1765 H   0  0  0  0  0  0  0  0  0  0  0  0
  1  2  1  0  0  0  0
  1  3  1  0  0  0  0
  1  7  1  0  0  0  0
  1 15  1  0  0  0  0
  2 58  1  0  0  0  0
  3  5  1  0  0  0  0
  3 14  1  0  0  0  0
  3 29  1  0  0  0  0
  4 23  1  0  0  0  0
  4 61  1  0  0  0  0
  5  9  1  0  0  0  0
  5 11  1  0  0  0  0
  5 30  1  0  0  0  0
  6 26  1  0  0  0  0
  6 28  1  0  0  0  0
  7 12  1  0  0  0  0
  7 13  1  0  0  0  0
  7 20  1  0  0  0  0
  8 28  1  0  0  0  0
  9 10  1  0  0  0  0
  9 18  1  0  0  0  0
  9 21  1  0  0  0  0
 10 16  1  0  0  0  0
 10 19  1  0  0  0  0
 10 31  1  0  0  0  0
 11 12  1  0  0  0  0
 11 32  1  0  0  0  0
 11 33  1  0  0  0  0
 12 34  1  0  0  0  0
 12 35  1  0  0  0  0
 13 17  1  0  0  0  0
 13 24  1  0  0  0  0
 13 36  1  0  0  0  0
 14 16  1  0  0  0  0
 14 37  1  0  0  0  0
 14 38  1  0  0  0  0
 15 17  1  0  0  0  0
 15 39  1  0  0  0  0
 15 40  1  0  0  0  0
 16 41  1  0  0  0  0
 16 42  1  0  0  0  0
 17 43  1  0  0  0  0
 17 44  1  0  0  0  0
 18 22  1  0  0  0  0
 18 45  1  0  0  0  0
 18 46  1  0  0  0  0
 19 23  1  0  0  0  0
 19 47  1  0  0  0  0
 19 48  1  0  0  0  0
 20 49  1  0  0  0  0
 20 50  1  0  0  0  0
 20 51  1  0  0  0  0
 21 52  1  0  0  0  0
 21 53  1  0  0  0  0
 21 54  1  0  0  0  0
 22 23  1  0  0  0  0
 22 55  1  0  0  0  0
 22 56  1  0  0  0  0
 23 57  1  0  0  0  0
 24 25  1  0  0  0  0
 24 26  1  0  0  0  0
 25 27  1  0  0  0  0
 25 59  1  0  0  0  0
 26 60  1  0  0  0  0
 27 28  1  0  0  0  0
 27 62  1  0  0  0  0
M  END
$$$$
